12
Xmol XYZ file made by jagout2xyz.py
C       1.4082     0.0000     0.0000
C       0.7041     1.2196     0.0000
C      -0.7041     1.2196     0.0000
C      -1.4082     0.0000     0.0000
C      -0.7041    -1.2196     0.0000
C       0.7041    -1.2196     0.0000
H       2.4311     0.0000     0.0000
H       1.2155    -2.1054     0.0000
H      -1.2155    -2.1054     0.0000
H      -2.4311     0.0000     0.0000
H      -1.2155     2.1054     0.0000
H       1.2155     2.1054     0.0000
