20

O1      -1.713616610    1.243716955    0.736445725
C1      -1.341511130   -0.054340221    0.820427537
C2      -2.036442518   -0.939841688    1.663589954
C3      -1.641770601   -2.287945032    1.748548269
C4      -0.544515491   -2.774863720    1.001593471
C5       0.134313673   -1.874176383    0.142606720
C6      -0.257164538   -0.524646401    0.058567956
N1      -0.249021173   -4.093309879    1.156122208
C7       0.898427188   -4.765147686    0.888041556
O2       1.944948316   -4.211537838    0.476741612
C8       0.919175148   -6.218533993    1.125376105
H1      -2.469556570    1.577612042    1.263748765
H2      -2.829293728   -0.605991662    2.216500759
H3      -2.163447142   -2.913754463    2.368732214
H4       0.908987880   -2.185167789   -0.443058282
H5       0.246597588    0.113255978   -0.562205553
H6      -0.959591031   -4.633766651    1.537439585
H7       0.701575160   -6.423584938    2.174993753
H8       0.163852051   -6.703066826    0.504316807
H9       1.894107819   -6.647564888    0.883226514
