400
File written by vimm.xyz
C 14.891550 8.445775 0.000000
C 14.750695 9.785927 0.000000
C 14.576072 10.437629 1.169134
C 14.027980 11.668663 1.169134
C 13.660517 12.234507 -0.000000
C 12.758841 13.235920 -0.000000
C 12.234507 13.660517 1.169134
C 11.067508 14.334284 1.169134
C 10.437629 14.576072 -0.000000
C 9.119542 14.856240 -0.000000
C 8.445775 14.891550 1.169134
C 7.105623 14.750695 1.169134
C 6.453921 14.576072 -0.000000
C 5.222888 14.027980 -0.000000
C 4.657044 13.660517 1.169134
C 3.655631 12.758841 1.169134
C 3.231034 12.234507 -0.000000
C 2.557267 11.067508 -0.000000
C 2.315479 10.437629 1.169134
C 2.035311 9.119542 1.169134
C 2.000000 8.445775 -0.000000
C 2.140856 7.105623 -0.000000
C 2.315479 6.453921 1.169134
C 2.863570 5.222888 1.169134
C 3.231034 4.657044 -0.000000
C 4.132710 3.655631 -0.000000
C 4.657044 3.231034 1.169134
C 5.824042 2.557267 1.169134
C 6.453921 2.315479 -0.000000
C 7.772008 2.035311 -0.000000
C 8.445775 2.000000 1.169134
C 9.785927 2.140856 1.169134
C 10.437629 2.315479 -0.000000
C 11.668663 2.863570 -0.000000
C 12.234507 3.231034 1.169134
C 13.235920 4.132710 1.169134
C 13.660517 4.657044 -0.000000
C 14.334284 5.824042 -0.000000
C 14.576072 6.453921 1.169134
C 14.856240 7.772008 1.169134
C 14.891550 8.445775 2.338269
C 14.750695 9.785927 2.338269
C 14.576072 10.437629 3.507403
C 14.027980 11.668663 3.507403
C 13.660517 12.234507 2.338269
C 12.758841 13.235920 2.338269
C 12.234507 13.660517 3.507403
C 11.067508 14.334284 3.507403
C 10.437629 14.576072 2.338269
C 9.119542 14.856240 2.338269
C 8.445775 14.891550 3.507403
C 7.105623 14.750695 3.507403
C 6.453921 14.576072 2.338269
C 5.222888 14.027980 2.338269
C 4.657044 13.660517 3.507403
C 3.655631 12.758841 3.507403
C 3.231034 12.234507 2.338269
C 2.557267 11.067508 2.338269
C 2.315479 10.437629 3.507403
C 2.035311 9.119542 3.507403
C 2.000000 8.445775 2.338269
C 2.140856 7.105623 2.338269
C 2.315479 6.453921 3.507403
C 2.863570 5.222888 3.507403
C 3.231034 4.657044 2.338269
C 4.132710 3.655631 2.338269
C 4.657044 3.231034 3.507403
C 5.824042 2.557267 3.507403
C 6.453921 2.315479 2.338269
C 7.772008 2.035311 2.338269
C 8.445775 2.000000 3.507403
C 9.785927 2.140856 3.507403
C 10.437629 2.315479 2.338269
C 11.668663 2.863570 2.338269
C 12.234507 3.231034 3.507403
C 13.235920 4.132710 3.507403
C 13.660517 4.657044 2.338269
C 14.334284 5.824042 2.338269
C 14.576072 6.453921 3.507403
C 14.856240 7.772008 3.507403
C 14.891550 8.445775 4.676537
C 14.750695 9.785927 4.676537
C 14.576072 10.437629 5.845671
C 14.027980 11.668663 5.845671
C 13.660517 12.234507 4.676537
C 12.758841 13.235920 4.676537
C 12.234507 13.660517 5.845671
C 11.067508 14.334284 5.845671
C 10.437629 14.576072 4.676537
C 9.119542 14.856240 4.676537
C 8.445775 14.891550 5.845671
C 7.105623 14.750695 5.845671
C 6.453921 14.576072 4.676537
C 5.222888 14.027980 4.676537
C 4.657044 13.660517 5.845671
C 3.655631 12.758841 5.845671
C 3.231034 12.234507 4.676537
C 2.557267 11.067508 4.676537
C 2.315479 10.437629 5.845671
C 2.035311 9.119542 5.845671
C 2.000000 8.445775 4.676537
C 2.140856 7.105623 4.676537
C 2.315479 6.453921 5.845671
C 2.863570 5.222888 5.845671
C 3.231034 4.657044 4.676537
C 4.132710 3.655631 4.676537
C 4.657044 3.231034 5.845671
C 5.824042 2.557267 5.845671
C 6.453921 2.315479 4.676537
C 7.772008 2.035311 4.676537
C 8.445775 2.000000 5.845671
C 9.785927 2.140856 5.845671
C 10.437629 2.315479 4.676537
C 11.668663 2.863570 4.676537
C 12.234507 3.231034 5.845671
C 13.235920 4.132710 5.845671
C 13.660517 4.657044 4.676537
C 14.334284 5.824042 4.676537
C 14.576072 6.453921 5.845671
C 14.856240 7.772008 5.845671
C 14.891550 8.445775 7.014806
C 14.750695 9.785927 7.014806
C 14.576072 10.437629 8.183940
C 14.027980 11.668663 8.183940
C 13.660517 12.234507 7.014806
C 12.758841 13.235920 7.014806
C 12.234507 13.660517 8.183940
C 11.067508 14.334284 8.183940
C 10.437629 14.576072 7.014806
C 9.119542 14.856240 7.014806
C 8.445775 14.891550 8.183940
C 7.105623 14.750695 8.183940
C 6.453921 14.576072 7.014806
C 5.222888 14.027980 7.014806
C 4.657044 13.660517 8.183940
C 3.655631 12.758841 8.183940
C 3.231034 12.234507 7.014806
C 2.557267 11.067508 7.014806
C 2.315479 10.437629 8.183940
C 2.035311 9.119542 8.183940
C 2.000000 8.445775 7.014806
C 2.140856 7.105623 7.014806
C 2.315479 6.453921 8.183940
C 2.863570 5.222888 8.183940
C 3.231034 4.657044 7.014806
C 4.132710 3.655631 7.014806
C 4.657044 3.231034 8.183940
C 5.824042 2.557267 8.183940
C 6.453921 2.315479 7.014806
C 7.772008 2.035311 7.014806
C 8.445775 2.000000 8.183940
C 9.785927 2.140856 8.183940
C 10.437629 2.315479 7.014806
C 11.668663 2.863570 7.014806
C 12.234507 3.231034 8.183940
C 13.235920 4.132710 8.183940
C 13.660517 4.657044 7.014806
C 14.334284 5.824042 7.014806
C 14.576072 6.453921 8.183940
C 14.856240 7.772008 8.183940
C 14.891550 8.445775 9.353074
C 14.750695 9.785927 9.353074
C 14.576072 10.437629 10.522209
C 14.027980 11.668663 10.522209
C 13.660517 12.234507 9.353074
C 12.758841 13.235920 9.353074
C 12.234507 13.660517 10.522209
C 11.067508 14.334284 10.522209
C 10.437629 14.576072 9.353074
C 9.119542 14.856240 9.353074
C 8.445775 14.891550 10.522209
C 7.105623 14.750695 10.522209
C 6.453921 14.576072 9.353074
C 5.222888 14.027980 9.353074
C 4.657044 13.660517 10.522209
C 3.655631 12.758841 10.522209
C 3.231034 12.234507 9.353074
C 2.557267 11.067508 9.353074
C 2.315479 10.437629 10.522209
C 2.035311 9.119542 10.522209
C 2.000000 8.445775 9.353074
C 2.140856 7.105623 9.353074
C 2.315479 6.453921 10.522209
C 2.863570 5.222888 10.522209
C 3.231034 4.657044 9.353074
C 4.132710 3.655631 9.353074
C 4.657044 3.231034 10.522209
C 5.824042 2.557267 10.522209
C 6.453921 2.315479 9.353074
C 7.772008 2.035311 9.353074
C 8.445775 2.000000 10.522209
C 9.785927 2.140856 10.522209
C 10.437629 2.315479 9.353074
C 11.668663 2.863570 9.353074
C 12.234507 3.231034 10.522209
C 13.235920 4.132710 10.522209
C 13.660517 4.657044 9.353074
C 14.334284 5.824042 9.353074
C 14.576072 6.453921 10.522209
C 14.856240 7.772008 10.522209
C 14.891550 8.445775 11.691343
C 14.750695 9.785927 11.691343
C 14.576072 10.437629 12.860477
C 14.027980 11.668663 12.860477
C 13.660517 12.234507 11.691343
C 12.758841 13.235920 11.691343
C 12.234507 13.660517 12.860477
C 11.067508 14.334284 12.860477
C 10.437629 14.576072 11.691343
C 9.119542 14.856240 11.691343
C 8.445775 14.891550 12.860477
C 7.105623 14.750695 12.860477
C 6.453921 14.576072 11.691343
C 5.222888 14.027980 11.691343
C 4.657044 13.660517 12.860477
C 3.655631 12.758841 12.860477
C 3.231034 12.234507 11.691343
C 2.557267 11.067508 11.691343
C 2.315479 10.437629 12.860477
C 2.035311 9.119542 12.860477
C 2.000000 8.445775 11.691343
C 2.140856 7.105623 11.691343
C 2.315479 6.453921 12.860477
C 2.863570 5.222888 12.860477
C 3.231034 4.657044 11.691343
C 4.132710 3.655631 11.691343
C 4.657044 3.231034 12.860477
C 5.824042 2.557267 12.860477
C 6.453921 2.315479 11.691343
C 7.772008 2.035311 11.691343
C 8.445775 2.000000 12.860477
C 9.785927 2.140856 12.860477
C 10.437629 2.315479 11.691343
C 11.668663 2.863570 11.691343
C 12.234507 3.231034 12.860477
C 13.235920 4.132710 12.860477
C 13.660517 4.657044 11.691343
C 14.334284 5.824042 11.691343
C 14.576072 6.453921 12.860477
C 14.856240 7.772008 12.860477
C 14.891550 8.445775 14.029612
C 14.750695 9.785927 14.029612
C 14.576072 10.437629 15.198746
C 14.027980 11.668663 15.198746
C 13.660517 12.234507 14.029612
C 12.758841 13.235920 14.029612
C 12.234507 13.660517 15.198746
C 11.067508 14.334284 15.198746
C 10.437629 14.576072 14.029612
C 9.119542 14.856240 14.029612
C 8.445775 14.891550 15.198746
C 7.105623 14.750695 15.198746
C 6.453921 14.576072 14.029612
C 5.222888 14.027980 14.029612
C 4.657044 13.660517 15.198746
C 3.655631 12.758841 15.198746
C 3.231034 12.234507 14.029612
C 2.557267 11.067508 14.029612
C 2.315479 10.437629 15.198746
C 2.035311 9.119542 15.198746
C 2.000000 8.445775 14.029612
C 2.140856 7.105623 14.029612
C 2.315479 6.453921 15.198746
C 2.863570 5.222888 15.198746
C 3.231034 4.657044 14.029612
C 4.132710 3.655631 14.029612
C 4.657044 3.231034 15.198746
C 5.824042 2.557267 15.198746
C 6.453921 2.315479 14.029612
C 7.772008 2.035311 14.029612
C 8.445775 2.000000 15.198746
C 9.785927 2.140856 15.198746
C 10.437629 2.315479 14.029612
C 11.668663 2.863570 14.029612
C 12.234507 3.231034 15.198746
C 13.235920 4.132710 15.198746
C 13.660517 4.657044 14.029612
C 14.334284 5.824042 14.029612
C 14.576072 6.453921 15.198746
C 14.856240 7.772008 15.198746
C 14.891550 8.445775 16.367880
C 14.750695 9.785927 16.367880
C 14.576072 10.437629 17.537014
C 14.027980 11.668663 17.537014
C 13.660517 12.234507 16.367880
C 12.758841 13.235920 16.367880
C 12.234507 13.660517 17.537014
C 11.067508 14.334284 17.537014
C 10.437629 14.576072 16.367880
C 9.119542 14.856240 16.367880
C 8.445775 14.891550 17.537014
C 7.105623 14.750695 17.537014
C 6.453921 14.576072 16.367880
C 5.222888 14.027980 16.367880
C 4.657044 13.660517 17.537014
C 3.655631 12.758841 17.537014
C 3.231034 12.234507 16.367880
C 2.557267 11.067508 16.367880
C 2.315479 10.437629 17.537014
C 2.035311 9.119542 17.537014
C 2.000000 8.445775 16.367880
C 2.140856 7.105623 16.367880
C 2.315479 6.453921 17.537014
C 2.863570 5.222888 17.537014
C 3.231034 4.657044 16.367880
C 4.132710 3.655631 16.367880
C 4.657044 3.231034 17.537014
C 5.824042 2.557267 17.537014
C 6.453921 2.315479 16.367880
C 7.772008 2.035311 16.367880
C 8.445775 2.000000 17.537014
C 9.785927 2.140856 17.537014
C 10.437629 2.315479 16.367880
C 11.668663 2.863570 16.367880
C 12.234507 3.231034 17.537014
C 13.235920 4.132710 17.537014
C 13.660517 4.657044 16.367880
C 14.334284 5.824042 16.367880
C 14.576072 6.453921 17.537014
C 14.856240 7.772008 17.537014
C 14.891550 8.445775 18.706149
C 14.750695 9.785927 18.706149
C 14.576072 10.437629 19.875283
C 14.027980 11.668663 19.875283
C 13.660517 12.234507 18.706149
C 12.758841 13.235920 18.706149
C 12.234507 13.660517 19.875283
C 11.067508 14.334284 19.875283
C 10.437629 14.576072 18.706149
C 9.119542 14.856240 18.706149
C 8.445775 14.891550 19.875283
C 7.105623 14.750695 19.875283
C 6.453921 14.576072 18.706149
C 5.222888 14.027980 18.706149
C 4.657044 13.660517 19.875283
C 3.655631 12.758841 19.875283
C 3.231034 12.234507 18.706149
C 2.557267 11.067508 18.706149
C 2.315479 10.437629 19.875283
C 2.035311 9.119542 19.875283
C 2.000000 8.445775 18.706149
C 2.140856 7.105623 18.706149
C 2.315479 6.453921 19.875283
C 2.863570 5.222888 19.875283
C 3.231034 4.657044 18.706149
C 4.132710 3.655631 18.706149
C 4.657044 3.231034 19.875283
C 5.824042 2.557267 19.875283
C 6.453921 2.315479 18.706149
C 7.772008 2.035311 18.706149
C 8.445775 2.000000 19.875283
C 9.785927 2.140856 19.875283
C 10.437629 2.315479 18.706149
C 11.668663 2.863570 18.706149
C 12.234507 3.231034 19.875283
C 13.235920 4.132710 19.875283
C 13.660517 4.657044 18.706149
C 14.334284 5.824042 18.706149
C 14.576072 6.453921 19.875283
C 14.856240 7.772008 19.875283
C 14.891550 8.445775 21.044417
C 14.750695 9.785927 21.044417
C 14.576072 10.437629 22.213552
C 14.027980 11.668663 22.213552
C 13.660517 12.234507 21.044417
C 12.758841 13.235920 21.044417
C 12.234507 13.660517 22.213552
C 11.067508 14.334284 22.213552
C 10.437629 14.576072 21.044417
C 9.119542 14.856240 21.044417
C 8.445775 14.891550 22.213552
C 7.105623 14.750695 22.213552
C 6.453921 14.576072 21.044417
C 5.222888 14.027980 21.044417
C 4.657044 13.660517 22.213552
C 3.655631 12.758841 22.213552
C 3.231034 12.234507 21.044417
C 2.557267 11.067508 21.044417
C 2.315479 10.437629 22.213552
C 2.035311 9.119542 22.213552
C 2.000000 8.445775 21.044417
C 2.140856 7.105623 21.044417
C 2.315479 6.453921 22.213552
C 2.863570 5.222888 22.213552
C 3.231034 4.657044 21.044417
C 4.132710 3.655631 21.044417
C 4.657044 3.231034 22.213552
C 5.824042 2.557267 22.213552
C 6.453921 2.315479 21.044417
C 7.772008 2.035311 21.044417
C 8.445775 2.000000 22.213552
C 9.785927 2.140856 22.213552
C 10.437629 2.315479 21.044417
C 11.668663 2.863570 21.044417
C 12.234507 3.231034 22.213552
C 13.235920 4.132710 22.213552
C 13.660517 4.657044 21.044417
C 14.334284 5.824042 21.044417
C 14.576072 6.453921 22.213552
C 14.856240 7.772008 22.213552
