288

C 0.0 0.0 0.0
C 0.0 0.0 3.348
C -1.22799999999e-05 1.41797935099 0.0
C 1.228 0.709000310287 3.348
C 0.0 0.0 6.696
C 0.0 0.0 10.044
C -1.22799999999e-05 1.41797935099 6.696
C 1.228 0.709000310287 10.044
C -1.228 2.12695839169 0.0
C -1.228 2.12695839169 3.348
C -1.22801228 3.54493774269 0.0
C 0.0 2.83595870198 3.348
C -1.228 2.12695839169 6.696
C -1.228 2.12695839169 10.044
C -1.22801228 3.54493774269 6.696
C 0.0 2.83595870198 10.044
C -2.456 4.25391678339 0.0
C -2.456 4.25391678339 3.348
C -2.45601228 5.67189613438 0.0
C -1.228 4.96291709368 3.348
C -2.456 4.25391678339 6.696
C -2.456 4.25391678339 10.044
C -2.45601228 5.67189613438 6.696
C -1.228 4.96291709368 10.044
C -3.684 6.38087517508 0.0
C -3.684 6.38087517508 3.348
C -3.68401228 7.79885452607 0.0
C -2.456 7.08987548537 3.348
C -3.684 6.38087517508 6.696
C -3.684 6.38087517508 10.044
C -3.68401228 7.79885452607 6.696
C -2.456 7.08987548537 10.044
C -4.912 8.50783356678 0.0
C -4.912 8.50783356678 3.348
C -4.91201228 9.92581291777 0.0
C -3.684 9.21683387707 3.348
C -4.912 8.50783356678 6.696
C -4.912 8.50783356678 10.044
C -4.91201228 9.92581291777 6.696
C -3.684 9.21683387707 10.044
C -6.14 10.6347919585 0.0
C -6.14 10.6347919585 3.348
C -6.14001228 12.0527713095 0.0
C -4.912 11.3437922688 3.348
C -6.14 10.6347919585 6.696
C -6.14 10.6347919585 10.044
C -6.14001228 12.0527713095 6.696
C -4.912 11.3437922688 10.044
C 2.456 0.0 0.0
C 2.456 0.0 3.348
C 2.45598772 1.41797935099 0.0
C 3.684 0.709000310287 3.348
C 2.456 0.0 6.696
C 2.456 0.0 10.044
C 2.45598772 1.41797935099 6.696
C 3.684 0.709000310287 10.044
C 1.228 2.12695839169 0.0
C 1.228 2.12695839169 3.348
C 1.22798772 3.54493774269 0.0
C 2.456 2.83595870198 3.348
C 1.228 2.12695839169 6.696
C 1.228 2.12695839169 10.044
C 1.22798772 3.54493774269 6.696
C 2.456 2.83595870198 10.044
C 0.0 4.25391678339 0.0
C 0.0 4.25391678339 3.348
C -1.22799999995e-05 5.67189613438 0.0
C 1.228 4.96291709368 3.348
C 0.0 4.25391678339 6.696
C 0.0 4.25391678339 10.044
C -1.22799999995e-05 5.67189613438 6.696
C 1.228 4.96291709368 10.044
C -1.228 6.38087517508 0.0
C -1.228 6.38087517508 3.348
C -1.22801228 7.79885452607 0.0
C 0.0 7.08987548537 3.348
C -1.228 6.38087517508 6.696
C -1.228 6.38087517508 10.044
C -1.22801228 7.79885452607 6.696
C 0.0 7.08987548537 10.044
C -2.456 8.50783356678 0.0
C -2.456 8.50783356678 3.348
C -2.45601228 9.92581291777 0.0
C -1.228 9.21683387707 3.348
C -2.456 8.50783356678 6.696
C -2.456 8.50783356678 10.044
C -2.45601228 9.92581291777 6.696
C -1.228 9.21683387707 10.044
C -3.684 10.6347919585 0.0
C -3.684 10.6347919585 3.348
C -3.68401228 12.0527713095 0.0
C -2.456 11.3437922688 3.348
C -3.684 10.6347919585 6.696
C -3.684 10.6347919585 10.044
C -3.68401228 12.0527713095 6.696
C -2.456 11.3437922688 10.044
C 4.912 0.0 0.0
C 4.912 0.0 3.348
C 4.91198772 1.41797935099 0.0
C 6.14 0.709000310287 3.348
C 4.912 0.0 6.696
C 4.912 0.0 10.044
C 4.91198772 1.41797935099 6.696
C 6.14 0.709000310287 10.044
C 3.684 2.12695839169 0.0
C 3.684 2.12695839169 3.348
C 3.68398772 3.54493774269 0.0
C 4.912 2.83595870198 3.348
C 3.684 2.12695839169 6.696
C 3.684 2.12695839169 10.044
C 3.68398772 3.54493774269 6.696
C 4.912 2.83595870198 10.044
C 2.456 4.25391678339 0.0
C 2.456 4.25391678339 3.348
C 2.45598772 5.67189613438 0.0
C 3.684 4.96291709368 3.348
C 2.456 4.25391678339 6.696
C 2.456 4.25391678339 10.044
C 2.45598772 5.67189613438 6.696
C 3.684 4.96291709368 10.044
C 1.228 6.38087517508 0.0
C 1.228 6.38087517508 3.348
C 1.22798772 7.79885452607 0.0
C 2.456 7.08987548537 3.348
C 1.228 6.38087517508 6.696
C 1.228 6.38087517508 10.044
C 1.22798772 7.79885452607 6.696
C 2.456 7.08987548537 10.044
C 0.0 8.50783356678 0.0
C 0.0 8.50783356678 3.348
C -1.228e-05 9.92581291777 0.0
C 1.228 9.21683387707 3.348
C 0.0 8.50783356678 6.696
C 0.0 8.50783356678 10.044
C -1.228e-05 9.92581291777 6.696
C 1.228 9.21683387707 10.044
C -1.228 10.6347919585 0.0
C -1.228 10.6347919585 3.348
C -1.22801228 12.0527713095 0.0
C 0.0 11.3437922688 3.348
C -1.228 10.6347919585 6.696
C -1.228 10.6347919585 10.044
C -1.22801228 12.0527713095 6.696
C 0.0 11.3437922688 10.044
C 7.368 0.0 0.0
C 7.368 0.0 3.348
C 7.36798772 1.41797935099 0.0
C 8.596 0.709000310287 3.348
C 7.368 0.0 6.696
C 7.368 0.0 10.044
C 7.36798772 1.41797935099 6.696
C 8.596 0.709000310287 10.044
C 6.14 2.12695839169 0.0
C 6.14 2.12695839169 3.348
C 6.13998772 3.54493774269 0.0
C 7.368 2.83595870198 3.348
C 6.14 2.12695839169 6.696
C 6.14 2.12695839169 10.044
C 6.13998772 3.54493774269 6.696
C 7.368 2.83595870198 10.044
C 4.912 4.25391678339 0.0
C 4.912 4.25391678339 3.348
C 4.91198772 5.67189613438 0.0
C 6.14 4.96291709368 3.348
C 4.912 4.25391678339 6.696
C 4.912 4.25391678339 10.044
C 4.91198772 5.67189613438 6.696
C 6.14 4.96291709368 10.044
C 3.684 6.38087517508 0.0
C 3.684 6.38087517508 3.348
C 3.68398772 7.79885452607 0.0
C 4.912 7.08987548537 3.348
C 3.684 6.38087517508 6.696
C 3.684 6.38087517508 10.044
C 3.68398772 7.79885452607 6.696
C 4.912 7.08987548537 10.044
C 2.456 8.50783356678 0.0
C 2.456 8.50783356678 3.348
C 2.45598772 9.92581291777 0.0
C 3.684 9.21683387707 3.348
C 2.456 8.50783356678 6.696
C 2.456 8.50783356678 10.044
C 2.45598772 9.92581291777 6.696
C 3.684 9.21683387707 10.044
C 1.228 10.6347919585 0.0
C 1.228 10.6347919585 3.348
C 1.22798772 12.0527713095 0.0
C 2.456 11.3437922688 3.348
C 1.228 10.6347919585 6.696
C 1.228 10.6347919585 10.044
C 1.22798772 12.0527713095 6.696
C 2.456 11.3437922688 10.044
C 9.824 0.0 0.0
C 9.824 0.0 3.348
C 9.82398772 1.41797935099 0.0
C 11.052 0.709000310287 3.348
C 9.824 0.0 6.696
C 9.824 0.0 10.044
C 9.82398772 1.41797935099 6.696
C 11.052 0.709000310287 10.044
C 8.596 2.12695839169 0.0
C 8.596 2.12695839169 3.348
C 8.59598772 3.54493774269 0.0
C 9.824 2.83595870198 3.348
C 8.596 2.12695839169 6.696
C 8.596 2.12695839169 10.044
C 8.59598772 3.54493774269 6.696
C 9.824 2.83595870198 10.044
C 7.368 4.25391678339 0.0
C 7.368 4.25391678339 3.348
C 7.36798772 5.67189613438 0.0
C 8.596 4.96291709368 3.348
C 7.368 4.25391678339 6.696
C 7.368 4.25391678339 10.044
C 7.36798772 5.67189613438 6.696
C 8.596 4.96291709368 10.044
C 6.14 6.38087517508 0.0
C 6.14 6.38087517508 3.348
C 6.13998772 7.79885452607 0.0
C 7.368 7.08987548537 3.348
C 6.14 6.38087517508 6.696
C 6.14 6.38087517508 10.044
C 6.13998772 7.79885452607 6.696
C 7.368 7.08987548537 10.044
C 4.912 8.50783356678 0.0
C 4.912 8.50783356678 3.348
C 4.91198772 9.92581291777 0.0
C 6.14 9.21683387707 3.348
C 4.912 8.50783356678 6.696
C 4.912 8.50783356678 10.044
C 4.91198772 9.92581291777 6.696
C 6.14 9.21683387707 10.044
C 3.684 10.6347919585 0.0
C 3.684 10.6347919585 3.348
C 3.68398772 12.0527713095 0.0
C 4.912 11.3437922688 3.348
C 3.684 10.6347919585 6.696
C 3.684 10.6347919585 10.044
C 3.68398772 12.0527713095 6.696
C 4.912 11.3437922688 10.044
C 12.28 0.0 0.0
C 12.28 0.0 3.348
C 12.27998772 1.41797935099 0.0
C 13.508 0.709000310287 3.348
C 12.28 0.0 6.696
C 12.28 0.0 10.044
C 12.27998772 1.41797935099 6.696
C 13.508 0.709000310287 10.044
C 11.052 2.12695839169 0.0
C 11.052 2.12695839169 3.348
C 11.05198772 3.54493774269 0.0
C 12.28 2.83595870198 3.348
C 11.052 2.12695839169 6.696
C 11.052 2.12695839169 10.044
C 11.05198772 3.54493774269 6.696
C 12.28 2.83595870198 10.044
C 9.824 4.25391678339 0.0
C 9.824 4.25391678339 3.348
C 9.82398772 5.67189613438 0.0
C 11.052 4.96291709368 3.348
C 9.824 4.25391678339 6.696
C 9.824 4.25391678339 10.044
C 9.82398772 5.67189613438 6.696
C 11.052 4.96291709368 10.044
C 8.596 6.38087517508 0.0
C 8.596 6.38087517508 3.348
C 8.59598772 7.79885452607 0.0
C 9.824 7.08987548537 3.348
C 8.596 6.38087517508 6.696
C 8.596 6.38087517508 10.044
C 8.59598772 7.79885452607 6.696
C 9.824 7.08987548537 10.044
C 7.368 8.50783356678 0.0
C 7.368 8.50783356678 3.348
C 7.36798772 9.92581291777 0.0
C 8.596 9.21683387707 3.348
C 7.368 8.50783356678 6.696
C 7.368 8.50783356678 10.044
C 7.36798772 9.92581291777 6.696
C 8.596 9.21683387707 10.044
C 6.14 10.6347919585 0.0
C 6.14 10.6347919585 3.348
C 6.13998772 12.0527713095 0.0
C 7.368 11.3437922688 3.348
C 6.14 10.6347919585 6.696
C 6.14 10.6347919585 10.044
C 6.13998772 12.0527713095 6.696
C 7.368 11.3437922688 10.044
K
K
K
K
K
K
K
K
K
K
K
K
H