16
[[4.9119999999999999, 0.0, 0.0], [-2.456, 4.2539167833891627, 0.0], [0.0, 0.0, 6.6959999999999997]]
C 0.0 0.0 0.0
C 0.0 0.0 3.348
C -1.22799999999e-05 1.41797935099 0.0
C 1.228 0.709000310287 3.348
C -1.228 2.12695839169 0.0
C -1.228 2.12695839169 3.348
C -1.22801228 3.54493774269 0.0
C 0.0 2.83595870198 3.348
C 2.456 0.0 0.0
C 2.456 0.0 3.348
C 2.45598772 1.41797935099 0.0
C 3.684 0.709000310287 3.348
C 1.228 2.12695839169 0.0
C 1.228 2.12695839169 3.348
C 1.22798772 3.54493774269 0.0
C 2.456 2.83595870198 3.348
