62
[[6.4979652199746347, 0.0, 0.0], [0.0, 11.254805906811541, 0.0], [0.0, 0.0, 9.0399999999999991]]
C 0.0 0.0 0.0
C 1.85656149142 1.60782941526 0.0
C 6.03381556431 6.16335681069 0.0
C -9.28280745693e-06 3.7516126878 0.0
C 5.1055348186 10.9868450565 0.0
C 5.56967519146 8.57510093358 0.0
C 0.464131090048 1.33986856491 0.0
C 1.39242111857 4.01957353815 0.0
C 3.71311370004 6.96727151832 0.0
C 0.928280745711 6.43131766104 0.0
C 0.464140372855 8.84306178392 0.0
C 2.78483295432 0.535953857282 0.0
C 4.1772633557 0.803914707629 0.0
C 2.32069258147 2.94769798017 0.0
C 3.71312298284 3.21565883052 0.0
C 1.85655220861 5.35944210306 0.0
C 3.24898260999 5.62740295341 0.0
C 1.39241183576 7.77118622595 0.0
C 2.78484223713 8.03914707629 0.0
C 0.928271462903 10.1829303488 0.0
C 2.32070186428 10.4508911992 0.0
C 4.64139444575 2.14378327254 0.0
C 6.03382484712 2.41174412289 0.0
C 4.17725407289 4.55552739543 0.0
C 5.56968447426 4.82348824578 0.0
C 5.10554410141 7.23523236866 0.0
C 3.24897332718 9.37901564121 0.0
C 4.64140372855 9.64697649155 0.0
C 0.0 0.0 5.69000000216
C 6.03382948852 9.91496145934 5.69000000216
C 1.39242111857 4.01957353815 5.69000000216
C 0.928285387114 2.67972909068 5.69000000216
C 0.464145014259 5.09147321356 5.69000000216
C 0.928280745711 6.43131766104 5.69000000216
C 0.464140372855 8.84306178392 5.69000000216
C 1.39242575997 0.267984967788 5.69000000216
C 4.1772633557 0.803914707629 5.69000000216
C 3.24898725139 1.87581438305 5.69000000216
C 3.71312298284 3.21565883052 5.69000000216
C 2.78484687854 4.28755850594 5.69000000216
C 3.24898260999 5.62740295341 5.69000000216
C 2.32070650568 6.69930262882 5.69000000216
C 1.85656149142 1.60782941526 5.69000000216
C 2.78484223713 8.03914707629 5.69000000216
C 1.85656613283 9.11104675171 5.69000000216
C 4.64140372802e-06 7.50321733645 5.69000000216
C 2.32070186428 10.4508911992 5.69000000216
C 6.03382484712 2.41174412289 5.69000000216
C 5.10554874281 3.48364379831 5.69000000216
C 5.56968447426 4.82348824578 5.69000000216
C 4.64140836996 5.89538792119 5.69000000216
C 5.10554410141 7.23523236866 5.69000000216
C 4.1772679971 8.30713204408 5.69000000216
C 4.64140372855 9.64697649155 5.69000000216
C 3.71312762425 10.718876167 5.69000000216
C 5.56968911567 1.07189967542 5.69000000216
K 1.39242111857 0.26797156921 2.78948571816
K 4.64140372855 5.89537452262 2.78948571816
H 1.50845621178 9.23162055928 2.78948571816
H 2.20466677106 8.99044614699 2.78948571816
H 5.22157919462 1.19247348298 2.78948571816
H 5.91778975391 0.951299070695 2.78948571816
