98

  C        0.00000        0.00000        11.38000
  C        0.00000        3.75200        11.38000
  C        0.00000        7.50300        11.38000
  C        0.46400        1.34000        11.38000
  C        0.46400        5.09100        11.38000
  C        0.46400        8.84300        11.38000
  C        0.92800        2.68000        11.38000
  C        0.92800        6.43100        11.38000
  C        0.92800       10.18300        11.38000
  C        1.39200        0.26800        11.38000
  C        1.39200        4.02000        11.38000
  C        1.39200        7.77100        11.38000
  C        1.85700        1.60800        11.38000
  C        1.85700        5.35900        11.38000
  C        1.85700        9.11100        11.38000
  C        2.32100        2.94800        11.38000
  C        2.32100        6.69900        11.38000
  C        2.32100       10.45100        11.38000
  C        2.78500        0.53600        11.38000
  C        2.78500        4.28800        11.38000
  C        2.78500        8.03900        11.38000
  C        3.24900        1.87600        11.38000
  C        3.24900        5.62700        11.38000
  C        3.24900        9.37900        11.38000
  C        3.71300        3.21600        11.38000
  C        3.71300        6.96700        11.38000
  C        3.71300       10.71900        11.38000
  C        4.17700        0.80400        11.38000
  C        4.17700        4.55600        11.38000
  C        4.17700        8.30700        11.38000
  C        4.64100        2.14400        11.38000
  C        4.64100        5.89500        11.38000
  C        4.64100        9.64700        11.38000
  C        5.10600        3.48400        11.38000
  C        5.10600        7.23500        11.38000
  C        5.10600       10.98700        11.38000
  C        5.57000        1.07200        11.38000
  C        5.57000        4.82300        11.38000
  C        5.57000        8.57500        11.38000
  C        6.03400        2.41200        11.38000
  C        6.03400        6.16300        11.38000
  C        6.03400        9.91500        11.38000
  C        0.00000        0.00000        0.00000
  C        1.85700        1.60800        0.00000
  C        6.03400        6.16300        0.00000
  C       -0.00000        3.75200        0.00000
  C        5.10600       10.98700        0.00000
  C        5.57000        8.57500        0.00000
  C        0.46400        1.34000        0.00000
  C        1.39200        4.02000        0.00000
  C        3.71300        6.96700        0.00000
  C        0.92800        6.43100        0.00000
  C        0.46400        8.84300        0.00000
  C        2.78500        0.53600        0.00000
  C        4.17700        0.80400        0.00000
  C        2.32100        2.94800        0.00000
  C        3.71300        3.21600        0.00000
  C        1.85700        5.35900        0.00000
  C        3.24900        5.62700        0.00000
  C        1.39200        7.77100        0.00000
  C        2.78500        8.03900        0.00000
  C        0.92800       10.18300        0.00000
  C        2.32100       10.45100        0.00000
  C        4.64100        2.14400        0.00000
  C        6.03400        2.41200        0.00000
  C        4.17700        4.55600        0.00000
  C        5.57000        4.82300        0.00000
  C        5.10600        7.23500        0.00000
  C        3.24900        9.37900        0.00000
  C        4.64100        9.64700        0.00000
  C        0.00000        0.00000        5.69000
  C        6.03400        9.91500        5.69000
  C        1.39200        4.02000        5.69000
  C        0.92800        2.68000        5.69000
  C        0.46400        5.09100        5.69000
  C        0.92800        6.43100        5.69000
  C        0.46400        8.84300        5.69000
  C        1.39200        0.26800        5.69000
  C        4.17700        0.80400        5.69000
  C        3.24900        1.87600        5.69000
  C        3.71300        3.21600        5.69000
  C        2.78500        4.28800        5.69000
  C        3.24900        5.62700        5.69000
  C        2.32100        6.69900        5.69000
  C        1.85700        1.60800        5.69000
  C        2.78500        8.03900        5.69000
  C        1.85700        9.11100        5.69000
  C        0.00000        7.50300        5.69000
  C        2.32100       10.45100        5.69000
  C        6.03400        2.41200        5.69000
  C        5.10600        3.48400        5.69000
  C        5.57000        4.82300        5.69000
  C        4.64100        5.89500        5.69000
  C        5.10600        7.23500        5.69000
  C        4.17700        8.30700        5.69000
  C        4.64100        9.64700        5.69000
  C        3.71300       10.71900        5.69000
  C        5.57000        1.07200        5.69000
